26
Coordinates from ORCA-job r01-endo-3r-ts-opthess
  C   0.25376282402030      0.73728835917257     -0.40468663122457
  N   -0.49303539641576      1.45553034363955      0.44739204035804
  H   -0.32457954192221      1.23663080972886      1.43233564021588
  H   0.39010520938659      1.14702667944119     -1.40956548039539
  C   1.46421794747847      0.07443235761322      0.22019421200206
  C   -1.12489855412060      2.73673729502740      0.14759237455817
  C   -0.80332636401933     -0.88069067647192     -1.03868456596078
  C   -2.16221107641616     -0.22430958879593     -1.19641356506425
  C   -2.72777120359267     -0.33684097528213      0.17444106755294
  C   -2.00267965812756     -1.25164727851991      0.90722895588917
  C   -0.87360139630653     -1.64251235216255      0.14515590104987
  H   -0.19345707963077     -1.18794768853308     -1.89198046499778
  H   -3.63847672576019      0.16664773199757      0.50701575433365
  H   -2.76756778830488     -0.86899516820221     -1.86656436349121
  H   -2.20054820788463      0.77824481616857     -1.64557411865002
  H   -2.24765190165694     -1.61197848131904      1.90718809283178
  H   -0.13038768678417     -2.37312028389599      0.47104500978421
  H   -2.02625253151815      2.86534337440302      0.76122740988404
  H   -0.43305211103664      3.56818986921297      0.36250488433186
  H   -1.40742764009090      2.78492989493440     -0.91301235040665
  O   2.37002327154591     -0.23332194275768     -0.68992404356318
  O   1.53157926766577     -0.12632129698870      1.40746326744847
  C   3.60035358248533     -0.83095746471290     -0.22223878990410
  H   4.11690327408836     -1.19444564821062     -1.11695746723130
  H   4.20531167952755     -0.07091804331650      0.29199267995525
  H   3.38462780738983     -1.65348564217015      0.47244855069381
